/*--------------------------------*- C++ -*----------------------------------*\
| solids4foam: solid mechanics and fluid-solid interaction simulations        |
| Version:     v2.3                                                           |
| Web:         https://solids4foam.github.io                                  |
| Disclaimer:  This offering is not approved or endorsed by OpenCFD Limited,  |
|              producer and distributor of the OpenFOAM software via          |
|              www.openfoam.com, and owner of the OPENFOAM® and OpenCFD®      |
|              trade marks.                                                   |
\*---------------------------------------------------------------------------*/
FoamFile
{
    version     2.0;
    format      ascii;
    class       dictionary;
    object      fvSolution;
}
// * * * * * * * * * * * * * * * * * * * * * * * * * * * * * * * * * * * * * //

solvers
{
    Up
    {
        solver    petsc;

        options
        {
            snes_type newtonls;
            snes_linesearch_type l2;
            snes_rtol "1e-4";
            snes_stol "1e-4";
            snes_max_it "10";
            snes_monitor;
            snes_converged_reason;
            snes_mf_operator;

            ksp_type lgmres;
            ksp_gmres_restart "100";
            ksp_rtol "1e-2";
            ksp_pc_side right;
            ksp_converged_reason;
            ksp_max_it "400";

            pc_type fieldsplit;
            pc_fieldsplit_block_size "3";
            pc_fieldsplit_type schur;
            pc_fieldsplit_schur_factorization_type full;
            pc_fieldsplit_schur_precondition a11;

            // Velocity in 2-D
            pc_fieldsplit_0_fields "0,1";

            // Pressure in 2-D
            pc_fieldsplit_1_fields "2";

            // Velocity block
            fieldsplit_0_ksp_type preonly;
            fieldsplit_0_pc_type asm;
            fieldsplit_0_sub_pc_type ilu;
            fieldsplit_0_sub_pc_factor_levels "0";

            // Pressure block
            fieldsplit_1_ksp_type preonly;
            fieldsplit_1_pc_type hypre;
            fieldsplit_1_pc_hypre_type boomeramg;
            fieldsplit_1_pc_hypre_boomeramg_max_iter "1";
            fieldsplit_1_pc_hypre_boomeramg_strong_threshold "0.6";
            fieldsplit_1_pc_hypre_boomeramg_grid_sweeps_up "1";
            fieldsplit_1_pc_hypre_boomeramg_grid_sweeps_down "1";
            fieldsplit_1_pc_hypre_boomeramg_agg_nl "1";
            fieldsplit_1_pc_hypre_boomeramg_agg_num_paths "1";
            fieldsplit_1_pc_hypre_boomeramg_max_levels "25";
            fieldsplit_1_pc_hypre_boomeramg_coarsen_type HMIS;
            fieldsplit_1_pc_hypre_boomeramg_interp_type ext+i;
            fieldsplit_1_pc_hypre_boomeramg_P_max "1";
            fieldsplit_1_pc_hypre_boomeramg_truncfactor "0.3";
        }
    }

    "p|pFinal"
    {
        solver          GAMG;
        tolerance       1e-06;
        relTol          0;
        minIter         1;
        maxIter         1000;
        smoother        GaussSeidel;
        nPreSweeps      0;
        nPostSweeps     2;
        nFinestSweeps   2;
        scaleCorrection true;
        directSolveCoarsest false;
        cacheAgglomeration true;
        nCellsInCoarsestLevel 20;
        agglomerator    faceAreaPair;
        mergeLevels     1;
    }

    cellMotionU
    {
        solver          GAMG;
        tolerance       1e-06;
        relTol          0;
        minIter         1;
        maxIter         100;
        smoother        GaussSeidel;
        nPreSweeps      0;
        nPostSweeps     2;
        nFinestSweeps   2;
        scaleCorrection true;
        directSolveCoarsest false;
        cacheAgglomeration true;
        nCellsInCoarsestLevel 20;
        agglomerator    faceAreaPair;
        mergeLevels     1;
    }

    "U|UFinal"
    {
        solver          PBiCG;
        preconditioner  DILU;
        tolerance       1e-06;
        relTol          0;
        minIter         1;
    }
}

PIMPLE
{
    momentumPredictor   on;
    nOuterCorrectors    2;
    nCorrectors         3;
    nNonOrthogonalCorrectors 1;
}

// ************************************************************************* //
